/*--------------------------------*- C++ -*----------------------------------*\
| =========                 |                                                 |
| \\      /  F ield         | OpenFOAM: The Open Source CFD Toolbox           |
|  \\    /   O peration     | Version:  plus                                  |
|   \\  /    A nd           | Web:      www.OpenFOAM.com                      |
|    \\/     M anipulation  |                                                 |
\*---------------------------------------------------------------------------*/
FoamFile
{
    version     2.0;
    format      ascii;
    class       dictionary;
    location    "system";
    object      fvSchemes;
}
// * * * * * * * * * * * * * * * * * * * * * * * * * * * * * * * * * * * * * //

ddtSchemes
{
    default         steadyState;
}

gradSchemes
{
    default         Gauss linear;
}

divSchemes
{
    default             none;

    div(phi,U)          bounded Gauss linearUpwind grad;

    div(phi,k)          bounded Gauss linearUpwind grad;
    div(phi,omega)      bounded Gauss linearUpwind grad;

    div((nuEff*dev2(T(grad(U))))) Gauss linear;
    div(yPhi,yWall)	bounded Gauss linearUpwind grad;
}

laplacianSchemes
{
    default         Gauss linear corrected;
    laplacian(yPsi) Gauss linear corrected;
    laplacian(yWall) Gauss linear corrected;
}

interpolationSchemes
{
    default         linear;
}

snGradSchemes
{
    default         corrected;
}

wallDist
{
    method advectionDiffusion;
    nRequired false;
    advectionDiffusionCoeffs
    {
	method Poisson;
	epsilon 0.1;
	tolerance 1e-3;
	maxIter 10;

    }
}


// ************************************************************************* //
