
/*--------------------------------*- C++ -*----------------------------------*\
| =========                 |                                                 |
| \\      /  F ield         | OpenFOAM: The Open Source CFD Toolbox           |
|  \\    /   O peration     | Version:  plus                                  |
|   \\  /    A nd           | Web:      www.OpenFOAM.com                      |
|    \\/     M anipulation  |                                                 |
\*---------------------------------------------------------------------------*/
FoamFile
{
    version     2.0;
    format      ascii;
    class       dictionary;
    location    "system";
    object      fvSolution;
}
// * * * * * * * * * * * * * * * * * * * * * * * * * * * * * * * * * * * * * //

solvers
{
    p
    {
        solver          PBiCGStab;
	preconditioner	DIC;
        tolerance       1e-6;
        relTol          0.05;
//        smoother        GaussSeidel;
    }

    "(U|k|omega)"
    {
        solver          PBiCGStab;
        preconditioner        DILU;
        tolerance       1e-6;
        relTol          0.05;
        maxIter         50;
    }

    yPsi
    {
	solver		GAMG;
	smoother	GaussSeidel;
	cacheAgglomeration	true;
	nCellsInCoarsestLevel 10;
	agglomerator	faceAreaPair;
	mergeLevels	1;
	tolerance	1e-4;
	relTol		0;
    }

    yWall
    {
        solver          GAMG;
        smoother        symGaussSeidel;
        cacheAgglomeration      true;
        nCellsInCoarsestLevel 10;
        agglomerator    faceAreaPair;
        mergeLevels     1;
        tolerance       1e-4;
        relTol          0;

    }


}

SIMPLE
{
    consistent      yes;

    residualControl
    {
        p               1e-8;
        U               1e-8;
        "(k|omega)" 1e-8;
    }
}

relaxationFactors
{
    equations
    {
        ".*"            0.4;
	yWall		0.6;
    }
}


// ************************************************************************* //
