/*--------------------------------*- C++ -*----------------------------------*\
| =========                 |                                                 |
| \\      /  F ield         | OpenFOAM: The Open Source CFD Toolbox           |
|  \\    /   O peration     | Version:  plus                                  |
|   \\  /    A nd           | Web:      www.OpenFOAM.com                      |
|    \\/     M anipulation  |                                                 |
\*---------------------------------------------------------------------------*/
FoamFile
{
    version     2.0;
    format      ascii;
    class       dictionary;
    location    "system";
    object      controlDict;
}
// * * * * * * * * * * * * * * * * * * * * * * * * * * * * * * * * * * * * * //

libs ("libAlgKOmega.so");

application     pimpleFoam;

startFrom       latestTime;

startTime       0;

stopAt          endTime;

endTime         0.4;

deltaT          0.0002;

writeControl    timeStep;

writeInterval   50;

purgeWrite      20;

writeFormat     binary;

writePrecision  10;

writeCompression off;

timeFormat      general;

timePrecision   6;

runTimeModifiable true;

functions
{
  #includeFunc  residuals 
  #includeFunc "yPlus"
  //#includeFunc "Courant"

  fieldAverage1
  {
    type            fieldAverage;
    libs            ("libfieldFunctionObjects.so");
    writeControl    writeTime;

    fields
      (
       U
       {
        mean        on;
        prime2Mean  on;
        base        time;
        window      0.6;
        windowType approximate;
       }
       k
       {
        mean        on;
        prime2Mean  off;
        base        time;
        window      0.6;
        windowType approximate;
       }
       f_ss
       {
        mean        on;
        prime2Mean  off;
        base        time;
        window      0.6;
        windowType approximate;
       }
       gamma
       {
        mean        on;
        prime2Mean  off;
        base        time;
        window      0.6;
        windowType approximate;
       }
      );
  }
}

// ************************************************************************* //
